
/*--------------------------------*- C++ -*----------------------------------*\
| =========                 |                                                 |
| \\      /  F ield         | foam-extend: Open Source CFD                    |
|  \\    /   O peration     | Version:     4.0                                |
|   \\  /    A nd           | Web:         http://www.foam-extend.org         |
|    \\/     M anipulation  |                                                 |
\*---------------------------------------------------------------------------*/
FoamFile
{
    version     2.0;
    format      ascii;
    class       dictionary;
    location    "system";
    object      physicalParameters;
}
// * * * * * * * * * * * * * * * * * * * * * * * * * * * * * * * * * * * * * //
// nozzleType
nozzleType "rectangular";

h0 h0 [ 0 1 0 0 0 0 0] 1e-10;

hTol hTol [ 0 1 0 0 0 0 0] 1e-5;


Omega (0. 0. 1.570796);

Oxyz     (0 0 0);

//Nozzle initial location
Jxyz0	(2.0 1.0 0.0);

//nozzle velocity magnitude, i.e. the magnitude of velocity at which nozzle moves, do not confuse it with jet velocity
NozzleVelocity NozzleVelocity [ 0 1 -1 0 0 0 0]	0.282842712474619;

// unit tangential vector of nozzle motion path
NozzleMotionDir		(-0.7071067811865475 -0.7071067811865475 0.0);

// unit tangential vector of jet direction

jetDir (1.0 0.0 0.0);

JetR JetR  [0 1 0 0 0 0 0]	0.005;

JetH JetH  [0 1 0 0 0 0 0]	0.0066;

JetW JetW  [0 1 0 0 0 0 0]	0.0004;

JetL JetL  [0 1 0 0 0 0 0]	0.011;

JetAngle JetAngle  [0 0 0 0 0 0 0]	0.785398; //45 degree


hFixedVal hFixedVal  [0 1 0 0 0 0 0]	0.0;

UMagFixedVal UMagFixedVal  [0 1 -1 0 0 0 0]	1.1363636363636362;


// ************************************************************************* //
    