
/*--------------------------------*- C++ -*----------------------------------*\
| =========                 |                                                 |
| \\      /  F ield         | foam-extend: Open Source CFD                    |
|  \\    /   O peration     | Version:     4.0                                |
|   \\  /    A nd           | Web:         http://www.foam-extend.org         |
|    \\/     M anipulation  |                                                 |
\*---------------------------------------------------------------------------*/
FoamFile
{
    version     2.0;
    format      ascii;
    class       dictionary;
    location    "system";
    object      transportProperties;
}
// * * * * * * * * * * * * * * * * * * * * * * * * * * * * * * * * * * * * * //

//mug mug [0 2 -1 0 0 0 0] 0;
//mul mul [0 2 -1 0 0 0 0] 1e-3;
mug mug [1 -1 -1 0 0 0 0] 0.0;
mul mul [1 -1 -1 0 0 0 0] 0.0;

rhog rhog [ 1 -3  0 0 0 0 0 ] 0.0;
rhol rhol [ 1 -3  0 0 0 0 0 ] 0.0;

sigma sigma [ 1 0 -2 0 0 0 0 ] 0;

h0 h0 [ 0 1 0 0 0 0 0] 1e-10;

Omega (0. 0. 0.10471973333333334);
Oxyz     (0 0 0);

fCo   0;  //0.0125;

LapSwitch 0.;

//Nozzle initial location
Jxyz0	(1.0 0.0 0.0);

//nozzle velocity magnitude, i.e. the magnitude of velocity at which nozzle moves, do not confuse it with jet velocity
NozzleVel	0.2;

// nozzleType
nozzleType "rectangular";

// unit tangential vector of nozzle motion path
NozzleMotionDir		(1.0 0.0 0.0);
jetDir (1.0 1.0 1.0);

JetR	0.005;

JetH	0.0066;
JetW	0.0004;
JetL	0.011;
JetAngle	0.785398; //45 degree

hFixedVal	0.0005;
UMagFixedVal	3.7878787878787876;

// ************************************************************************* //
    